DSS_Simulator/ieee650v2_Renamed_withpv/ieee650_VLN.Txt

SYMMETRICAL COMPONENT VOLTAGES BY BUS (for 3-phase buses)

Bus   Mag:   V1 (kV)    p.u.     V2 (kV)   %V2/V1    V0 (kV)    %V0/V1

1        69.72       1.05  3.175E-008  4.554E-008 4.535E-009 6.505E-009
7        7.639      1.061    0.01577     0.2065   0.01577    0.2064
8        7.639      1.061    0.01577     0.2065   0.01577    0.2064
9        7.639      1.061    0.01577     0.2065   0.01577    0.2065
10       7.639      1.061    0.01577     0.2065   0.01577    0.2065
11       7.639      1.061    0.01577     0.2065   0.01578    0.2065
12       7.639      1.061    0.01577     0.2065   0.01578    0.2066
13       7.639      1.061    0.01577     0.2065   0.01578    0.2066
14       7.639      1.061    0.01577     0.2065   0.01578    0.2066
15       7.639      1.061    0.01577     0.2065   0.01578    0.2066
16       7.639      1.061    0.01577     0.2065   0.01579    0.2067
17       7.639      1.061    0.01577     0.2065   0.01579    0.2067
18       7.639      1.061    0.01577     0.2065   0.01579    0.2067
19       7.639      1.061    0.01578     0.2065   0.01579    0.2067
20       7.639      1.061    0.01578     0.2065   0.01579    0.2067
21       7.639      1.061    0.01578     0.2065   0.01579    0.2067
22       7.639      1.061    0.01578     0.2065    0.0158    0.2068
23       7.639      1.061    0.01578     0.2065    0.0158    0.2068
24       7.639      1.061    0.01578     0.2065    0.0158    0.2068
25       7.639      1.061    0.01578     0.2065   0.01581    0.2069
26       7.639      1.061    0.01578     0.2066   0.01581    0.2069
27       7.639      1.061    0.01578     0.2066   0.01581     0.207
28       7.639      1.061    0.01578     0.2066   0.01581     0.207
29       7.639      1.061    0.01578     0.2066   0.01581     0.207
34       7.639      1.061    0.01578     0.2066   0.01582    0.2071
41       7.639      1.061    0.01578     0.2066   0.01583    0.2073
45       7.639      1.061    0.01578     0.2066   0.01583    0.2073
51       7.639      1.061    0.01578     0.2066   0.01584    0.2073
52       7.639      1.061    0.01578     0.2066   0.01584    0.2073
53       7.639      1.061    0.01578     0.2066   0.01584    0.2073
54       7.639      1.061    0.01578     0.2066   0.01584    0.2074
56       7.639      1.061    0.01578     0.2066   0.01584    0.2074
57       7.639      1.061    0.01578     0.2066   0.01585    0.2074
58       7.639      1.061    0.01579     0.2066   0.01585    0.2074
59       7.639      1.061    0.01579     0.2066   0.01585    0.2074
60       7.639      1.061    0.01579     0.2066   0.01585    0.2075
61       7.639      1.061    0.01579     0.2066   0.01585    0.2075
62       7.639      1.061    0.01579     0.2066   0.01585    0.2075
63       7.639      1.061    0.01579     0.2066   0.01585    0.2075
64       7.639      1.061    0.01579     0.2066   0.01585    0.2075
65       7.639      1.061    0.01579     0.2066   0.01585    0.2075
66       7.639      1.061    0.01579     0.2066   0.01585    0.2075
67       7.639      1.061    0.01579     0.2066   0.01585    0.2075
68       7.639      1.061    0.01579     0.2066   0.01585    0.2075
69       7.639      1.061    0.01579     0.2067   0.01586    0.2076
70       7.639      1.061    0.01579     0.2067   0.01586    0.2076
71       7.639      1.061    0.01579     0.2067   0.01586    0.2076
73       7.639      1.061    0.01579     0.2067   0.01586    0.2076
79       7.639      1.061    0.01579     0.2067   0.01586    0.2076
80       7.639      1.061    0.01579     0.2067   0.01586    0.2076
82       7.639      1.061    0.01579     0.2067   0.01586    0.2076
84       7.639      1.061    0.01579     0.2067   0.01586    0.2076
86       7.639      1.061    0.01579     0.2067   0.01586    0.2076
90       7.639      1.061    0.01579     0.2067   0.01586    0.2076
91       7.639      1.061    0.01579     0.2067   0.01586    0.2076
93       7.639      1.061    0.01579     0.2067   0.01586    0.2076
95       7.639      1.061    0.01579     0.2067   0.01586    0.2076
96       7.639      1.061    0.01579     0.2067   0.01586    0.2076
98       7.639      1.061    0.01579     0.2067   0.01586    0.2076
99       7.639      1.061    0.01579     0.2067   0.01586    0.2077
100      7.639      1.061    0.01579     0.2067   0.01586    0.2077
102      7.639      1.061    0.01579     0.2067   0.01586    0.2077
106      7.639      1.061    0.01579     0.2067   0.01586    0.2077
111      7.639      1.061    0.01579     0.2067   0.01586    0.2077
124      7.639      1.061    0.01579     0.2067   0.01586    0.2077
101      7.639      1.061    0.01579     0.2067   0.01586    0.2077
104      7.639      1.061    0.01579     0.2067   0.01586    0.2077
105      7.639      1.061    0.01579     0.2067   0.01586    0.2077
107      7.639      1.061    0.01579     0.2067   0.01586    0.2077
110      7.639      1.061    0.01579     0.2067   0.01586    0.2077
114      7.639      1.061    0.01579     0.2067   0.01586    0.2077
115      7.639      1.061    0.01579     0.2067   0.01586    0.2077
118      7.639      1.061    0.01579     0.2067   0.01586    0.2077
119      7.639      1.061    0.01579     0.2067   0.01586    0.2077
121      7.639      1.061    0.01579     0.2067   0.01586    0.2077
128      7.639      1.061    0.01579     0.2067   0.01587    0.2077
129      7.639      1.061    0.01579     0.2067   0.01587    0.2077
131      7.639      1.061    0.01579     0.2067   0.01587    0.2077
132      7.639      1.061    0.01579     0.2067   0.01587    0.2077
136      7.639      1.061    0.01579     0.2067   0.01587    0.2077
141      7.639      1.061    0.01579     0.2067   0.01587    0.2077
143      7.639      1.061    0.01579     0.2067   0.01587    0.2077
148      7.639      1.061    0.01579     0.2067   0.01587    0.2077
153      7.639      1.061    0.01579     0.2067   0.01587    0.2077
156      7.639      1.061    0.01579     0.2067   0.01587    0.2077
159      7.639      1.061    0.01579     0.2067   0.01587    0.2077
164      7.639      1.061    0.01579     0.2067   0.01587    0.2077
168      7.639      1.061    0.01579     0.2067   0.01587    0.2077
170      7.639      1.061    0.01579     0.2067   0.01587    0.2077
178      7.639      1.061    0.01579     0.2067   0.01587    0.2077
183      7.639      1.061    0.01579     0.2067   0.01587    0.2077
187      7.639      1.061    0.01579     0.2067   0.01587    0.2077
188      7.639      1.061    0.01579     0.2067   0.01587    0.2077
189      7.639      1.061    0.01579     0.2067   0.01587    0.2077
200      7.639      1.061    0.01579     0.2067   0.01587    0.2077
204      7.639      1.061    0.01579     0.2067   0.01587    0.2077
210      7.639      1.061    0.01579     0.2067   0.01587    0.2077
220      7.639      1.061    0.01579     0.2067   0.01587    0.2077
226      7.639      1.061    0.01579     0.2067   0.01587    0.2077
228      7.639      1.061    0.01579     0.2067   0.01587    0.2078
229      7.639      1.061    0.01579     0.2067   0.01587    0.2078
230      7.639      1.061    0.01579     0.2067   0.01587    0.2078
231      7.639      1.061    0.01579     0.2067   0.01587    0.2078
232      7.639      1.061    0.01579     0.2067   0.01587    0.2078
234      7.639      1.061    0.01579     0.2067   0.01587    0.2078
233      8.101      1.125     0.1279      1.579     0.128      1.58
235      8.101      1.125     0.1279      1.579     0.128      1.58
237      8.101      1.125     0.1279      1.579     0.128      1.58
238      8.101      1.125     0.1279      1.579     0.128      1.58
241      8.101      1.125     0.1279      1.579     0.128      1.58
243      8.101      1.125     0.1279      1.579     0.128      1.58
244      8.101      1.125     0.1279      1.579     0.128      1.58
246      8.101      1.125     0.1279      1.579     0.128      1.58
247      8.101      1.125     0.1279      1.579     0.128      1.58
249      8.101      1.125     0.1279      1.579     0.128      1.58
250      8.101      1.125     0.1279      1.579     0.128      1.58
251      8.101      1.125     0.1279      1.579     0.128      1.58
252      8.101      1.125     0.1279      1.579     0.128      1.58
255      8.101      1.125     0.1279      1.579     0.128      1.58
257      8.101      1.125     0.1279      1.579     0.128      1.58
260      8.101      1.125     0.1279      1.579     0.128      1.58
262      8.101      1.125     0.1279      1.579     0.128      1.58
264      8.101      1.125     0.1279      1.579     0.128      1.58
268      8.101      1.125     0.1279      1.579     0.128      1.58
271      8.101      1.125     0.1279      1.579     0.128      1.58
277      8.101      1.125     0.1279      1.579     0.128      1.58
284      8.101      1.125     0.1279      1.579     0.128      1.58
288      8.101      1.125     0.1279      1.579     0.128      1.58
292      8.101      1.125     0.1279      1.579     0.128      1.58
294      8.101      1.125     0.1279      1.579     0.128      1.58
296      8.101      1.125     0.1279      1.579     0.128      1.58
300      8.101      1.125     0.1279      1.579     0.128      1.58
302      8.101      1.125     0.1279      1.579     0.128      1.58
307      8.101      1.125     0.1279      1.579     0.128      1.58
312      8.101      1.125     0.1279      1.579     0.128      1.58
315      8.101      1.125     0.1279      1.579     0.128      1.58
321      8.101      1.125     0.1279      1.579     0.128      1.58
324      8.101      1.125     0.1279      1.579     0.128      1.58
327      8.101      1.125     0.1279      1.579     0.128      1.58
328      8.101      1.125     0.1279      1.579     0.128      1.58
329      8.101      1.125     0.1279      1.579     0.128      1.58
330      8.101      1.125     0.1279      1.579     0.128      1.58
333      8.101      1.125     0.1279      1.579     0.128      1.58
335      8.101      1.125     0.1279      1.579     0.128      1.58
337      8.101      1.125     0.1279      1.579     0.128      1.58
339      8.101      1.125     0.1279      1.579     0.128      1.58
350      8.101      1.125     0.1279      1.579     0.128      1.58
351      8.101      1.125     0.1279      1.579     0.128      1.58
353      8.101      1.125     0.1279      1.579     0.128      1.58
354      8.101      1.125     0.1279      1.579     0.128      1.58
355      8.101      1.125     0.1279      1.579     0.128      1.58
357      8.101      1.125     0.1279      1.579     0.128      1.58
360      8.101      1.125     0.1279      1.579     0.128      1.58
362      8.101      1.125     0.1279      1.579     0.128      1.58
369      8.101      1.125     0.1279      1.579     0.128      1.58
370      8.101      1.125     0.1279      1.579     0.128      1.58
376      8.101      1.125     0.1279      1.579     0.128      1.58
379      8.101      1.125     0.1279      1.579     0.128      1.58
383      8.101      1.125     0.1279      1.579     0.128      1.58
386      8.101      1.125     0.1279      1.579     0.128      1.58
388      8.101      1.125     0.1279      1.579     0.128      1.58
393      8.101      1.125     0.1279      1.579     0.128      1.58
397      8.101      1.125     0.1279      1.579     0.128      1.58
407      8.101      1.125     0.1279      1.579     0.128      1.58
410      8.101      1.125     0.1279      1.579     0.128      1.58
414      8.101      1.125     0.1279      1.579     0.128      1.58
420      8.101      1.125     0.1279      1.579     0.128      1.58
428      8.101      1.125     0.1279      1.579     0.128      1.58
434      8.101      1.125     0.1279      1.579     0.128      1.58
439      8.101      1.125     0.1279      1.579     0.128      1.58
445      8.101      1.125     0.1279      1.579     0.128      1.58
451      8.101      1.125     0.1279      1.579     0.128      1.58
454      8.101      1.125     0.1279      1.579     0.128      1.58
460      8.101      1.125     0.1279      1.579     0.128      1.58
463      8.101      1.125     0.1279      1.579     0.128      1.58
363      8.101      1.125     0.1279      1.579     0.128      1.58
364      8.101      1.125     0.1279      1.579     0.128      1.58
365      8.101      1.125     0.1279      1.579     0.128      1.58
366      8.101      1.125     0.1279      1.579     0.128      1.58
368      8.101      1.125     0.1279      1.579     0.128      1.58
215      7.639      1.061    0.01579     0.2067   0.01587    0.2077
217      7.639      1.061    0.01579     0.2067   0.01587    0.2077
223      7.639      1.061    0.01579     0.2067   0.01587    0.2077
72       7.639      1.061    0.01579     0.2067   0.01586    0.2077
74       7.639      1.061    0.01579     0.2067   0.01586    0.2077
75       7.639      1.061    0.01579     0.2067   0.01587    0.2077
76       7.639      1.061    0.01579     0.2067   0.01587    0.2077
77       7.639      1.061    0.01579     0.2067   0.01587    0.2077
78       7.639      1.061    0.01579     0.2067   0.01587    0.2077
81       7.639      1.061    0.01579     0.2067   0.01587    0.2077
83       7.639      1.061    0.01579     0.2067   0.01587    0.2077
85       7.639      1.061    0.01579     0.2067   0.01587    0.2078
87       7.639      1.061    0.01579     0.2067   0.01587    0.2078
88       7.639      1.061    0.01579     0.2067   0.01588    0.2078
89       7.639      1.061    0.01579     0.2067   0.01588    0.2078
92       7.639      1.061    0.01579     0.2067   0.01588    0.2078
94       7.639      1.061    0.01579     0.2067   0.01588    0.2079
97       7.639      1.061    0.01579     0.2067   0.01588    0.2079
103      7.639      1.061    0.01579     0.2067   0.01589     0.208
108      7.639      1.061    0.01579     0.2067   0.01589    0.2081
109      7.639      1.061    0.01579     0.2067    0.0159    0.2081
112      7.639      1.061    0.01579     0.2067    0.0159    0.2081
113      7.639      1.061    0.01579     0.2067    0.0159    0.2081
116      7.639      1.061    0.01579     0.2067    0.0159    0.2081
117      7.639      1.061    0.01579     0.2067    0.0159    0.2081
120      7.639      1.061    0.01579     0.2068    0.0159    0.2082
122      7.639      1.061     0.0158     0.2068   0.01591    0.2082
123      7.639      1.061     0.0158     0.2068   0.01591    0.2082
125      7.639      1.061     0.0158     0.2068   0.01591    0.2082
126      7.639      1.061     0.0158     0.2068   0.01591    0.2082
127      7.639      1.061     0.0158     0.2068   0.01591    0.2082
130      7.639      1.061     0.0158     0.2068   0.01591    0.2083
133      7.639      1.061     0.0158     0.2068   0.01592    0.2083
134      7.639      1.061     0.0158     0.2068   0.01592    0.2083
135      7.639      1.061     0.0158     0.2068   0.01592    0.2083
139      7.639      1.061     0.0158     0.2068   0.01592    0.2083
140      7.639      1.061     0.0158     0.2068   0.01592    0.2083
137      7.639      1.061     0.0158     0.2068   0.01592    0.2084
138      7.639      1.061     0.0158     0.2068   0.01592    0.2084
142      7.639      1.061     0.0158     0.2068   0.01592    0.2084
144      7.639      1.061     0.0158     0.2068   0.01592    0.2084
149      7.639      1.061     0.0158     0.2068   0.01593    0.2085
150      7.639      1.061     0.0158     0.2068   0.01593    0.2085
151      7.639      1.061     0.0158     0.2068   0.01593    0.2085
152      7.639      1.061     0.0158     0.2068   0.01593    0.2085
154      7.639      1.061     0.0158     0.2068   0.01593    0.2085
157      7.639      1.061     0.0158     0.2068   0.01593    0.2085
161      7.639      1.061     0.0158     0.2068   0.01593    0.2085
163      7.639      1.061     0.0158     0.2068   0.01593    0.2085
165      7.639      1.061     0.0158     0.2068   0.01593    0.2086
166      7.639      1.061     0.0158     0.2068   0.01593    0.2086
169       7.64      1.061     0.0158     0.2068   0.01594    0.2086
172       7.64      1.061     0.0158     0.2068   0.01594    0.2086
173       7.64      1.061     0.0158     0.2068   0.01594    0.2086
174       7.64      1.061     0.0158     0.2068   0.01594    0.2087
175       7.64      1.061     0.0158     0.2068   0.01594    0.2087
179       7.64      1.061     0.0158     0.2068   0.01594    0.2087
184       7.64      1.061     0.0158     0.2068   0.01594    0.2087
185       7.64      1.061     0.0158     0.2068   0.01595    0.2087
186       7.64      1.061     0.0158     0.2068   0.01595    0.2087
190       7.64      1.061     0.0158     0.2068   0.01595    0.2088
198       7.64      1.061     0.0158     0.2069   0.01595    0.2088
199       7.64      1.061     0.0158     0.2069   0.01595    0.2088
203       7.64      1.061     0.0158     0.2069   0.01595    0.2088
205       7.64      1.061     0.0158     0.2069   0.01595    0.2088
213       7.64      1.061     0.0158     0.2069   0.01596    0.2089
216       7.64      1.061     0.0158     0.2069   0.01596    0.2089
219       7.64      1.061     0.0158     0.2069   0.01596    0.2089
218       8.07      1.121     0.2233      2.767    0.2234     2.768
221       8.07      1.121     0.2233      2.767    0.2234     2.768
222       8.07      1.121     0.2233      2.767    0.2234     2.768
224       8.07      1.121     0.2233      2.767    0.2234     2.768
225       8.07      1.121     0.2233      2.767    0.2234     2.768
227       8.07      1.121     0.2233      2.767    0.2234     2.768
236       8.07      1.121     0.2233      2.767    0.2234     2.768
239       8.07      1.121     0.2233      2.767    0.2234     2.768
240       8.07      1.121     0.2233      2.767    0.2234     2.768
242       8.07      1.121     0.2233      2.767    0.2234     2.768
245       8.07      1.121     0.2233      2.767    0.2234     2.768
248       8.07      1.121     0.2233      2.767    0.2234     2.768
253       8.07      1.121     0.2233      2.767    0.2234     2.768
254       8.07      1.121     0.2233      2.767    0.2234     2.768
256       8.07      1.121     0.2233      2.767    0.2234     2.768
258       8.07      1.121     0.2233      2.767    0.2234     2.768
259       8.07      1.121     0.2233      2.767    0.2234     2.768
261       8.07      1.121     0.2233      2.767    0.2234     2.768
263       8.07      1.121     0.2233      2.767    0.2234     2.768
265       8.07      1.121     0.2233      2.767    0.2234     2.768
266       8.07      1.121     0.2233      2.767    0.2234     2.768
267       8.07      1.121     0.2233      2.767    0.2234     2.768
269       8.07      1.121     0.2233      2.767    0.2234     2.768
270       8.07      1.121     0.2233      2.767    0.2234     2.768
272       8.07      1.121     0.2233      2.767    0.2234     2.768
273       8.07      1.121     0.2233      2.767    0.2234     2.768
274       8.07      1.121     0.2233      2.767    0.2234     2.768
275       8.07      1.121     0.2233      2.767    0.2234     2.768
276       8.07      1.121     0.2233      2.767    0.2234     2.768
278       8.07      1.121     0.2233      2.767    0.2234     2.768
279       8.07      1.121     0.2233      2.767    0.2234     2.768
280       8.07      1.121     0.2233      2.767    0.2234     2.768
281       8.07      1.121     0.2233      2.767    0.2234     2.768
282       8.07      1.121     0.2233      2.767    0.2234     2.768
283       8.07      1.121     0.2233      2.767    0.2234     2.768
285       8.07      1.121     0.2233      2.767    0.2234     2.768
287       8.07      1.121     0.2233      2.767    0.2234     2.768
289       8.07      1.121     0.2233      2.767    0.2234     2.769
293       8.07      1.121     0.2233      2.767    0.2234     2.769
295       8.07      1.121     0.2233      2.767    0.2234     2.769
299       8.07      1.121     0.2233      2.767    0.2234     2.769
301       8.07      1.121     0.2233      2.767    0.2234     2.769
303       8.07      1.121     0.2233      2.767    0.2234     2.769
305       8.07      1.121     0.2233      2.767    0.2234     2.769
311       8.07      1.121     0.2233      2.767    0.2234     2.769
313       8.07      1.121     0.2233      2.767    0.2234     2.769
314       8.07      1.121     0.2233      2.767    0.2234     2.769
316       8.07      1.121     0.2233      2.767    0.2234     2.769
317       8.07      1.121     0.2233      2.767    0.2234     2.769
318       8.07      1.121     0.2233      2.767    0.2234     2.769
320       8.07      1.121     0.2233      2.767    0.2234     2.769
322       8.07      1.121     0.2233      2.767    0.2234     2.769
323       8.07      1.121     0.2233      2.767    0.2234     2.769
331       8.07      1.121     0.2233      2.767    0.2234     2.769
340       8.07      1.121     0.2233      2.767    0.2234     2.769
342       8.07      1.121     0.2233      2.767    0.2234     2.769
344       8.07      1.121     0.2233      2.767    0.2234     2.769
343      8.379      1.164     0.3466      4.136    0.3468     4.138
345      8.379      1.164     0.3466      4.136    0.3468     4.138
346      8.379      1.164     0.3466      4.136    0.3468     4.138
347      8.379      1.164     0.3466      4.136    0.3468     4.138
348      8.379      1.164     0.3466      4.136    0.3468     4.138
349      8.379      1.164     0.3466      4.136    0.3468     4.138
352      8.379      1.164     0.3466      4.136    0.3468     4.138
356      8.379      1.164     0.3466      4.136    0.3468     4.138
358      8.379      1.164     0.3466      4.136    0.3468     4.138
359      8.379      1.164     0.3466      4.136    0.3468     4.138
361      8.379      1.164     0.3466      4.136    0.3468     4.138
367      8.379      1.164     0.3466      4.136    0.3468     4.138
371      8.379      1.164     0.3466      4.136    0.3468     4.138
372      8.379      1.164     0.3466      4.136    0.3468     4.138
373      8.379      1.164     0.3466      4.136    0.3468     4.138
380      8.379      1.164     0.3466      4.136    0.3468     4.138
381      8.379      1.164     0.3466      4.136    0.3468     4.138
384      8.379      1.164     0.3466      4.136    0.3468     4.138
392      8.379      1.164     0.3466      4.136    0.3468     4.138
395      8.379      1.164     0.3466      4.136    0.3468     4.138
399      8.379      1.164     0.3466      4.136    0.3468     4.138
404      8.379      1.164     0.3466      4.136    0.3468     4.138
406      8.379      1.164     0.3466      4.136    0.3468     4.138
412      8.379      1.164     0.3466      4.136    0.3468     4.138
416      8.379      1.164     0.3466      4.136    0.3468     4.138
419      8.379      1.164     0.3466      4.136    0.3468     4.138
435      8.379      1.164     0.3466      4.136    0.3468     4.138
443      8.379      1.164     0.3466      4.136    0.3468     4.138
452      8.379      1.164     0.3466      4.136    0.3468     4.138
459      8.379      1.164     0.3466      4.136    0.3468     4.138
469      8.379      1.164     0.3466      4.136    0.3468     4.138
478      8.379      1.164     0.3466      4.136    0.3468     4.138
483      8.379      1.164     0.3466      4.136    0.3468     4.138
486      8.379      1.164     0.3466      4.136    0.3468     4.138
489      8.379      1.164     0.3466      4.136    0.3468     4.138
494      8.379      1.164     0.3466      4.136    0.3468     4.138
501      8.379      1.164     0.3466      4.136    0.3468     4.138
502      8.379      1.164     0.3466      4.136    0.3468     4.138
504      8.379      1.164     0.3466      4.136    0.3468     4.138
508      8.379      1.164     0.3466      4.136    0.3468     4.138
515      8.379      1.164     0.3466      4.136    0.3468     4.138
523      8.379      1.164     0.3466      4.136    0.3468     4.138
526      8.379      1.164     0.3466      4.136    0.3468     4.138
531      8.379      1.164     0.3466      4.136    0.3468     4.138
539      8.379      1.164     0.3466      4.136    0.3468     4.138
543      8.379      1.164     0.3466      4.136    0.3468     4.138
550      8.379      1.164     0.3466      4.136    0.3468     4.138
551      8.379      1.164     0.3466      4.136    0.3468     4.138
555      8.379      1.164     0.3466      4.136    0.3468     4.138
556      8.379      1.164     0.3466      4.136    0.3468     4.138
560      8.379      1.164     0.3466      4.136    0.3468     4.138
563      8.379      1.164     0.3466      4.136    0.3468     4.138
564      8.379      1.164     0.3466      4.136    0.3468     4.138
566      8.379      1.164     0.3466      4.136    0.3468     4.138
572      8.379      1.164     0.3466      4.136    0.3468     4.138
578      8.379      1.164     0.3466      4.136    0.3468     4.138
584      8.379      1.164     0.3466      4.136    0.3468     4.138
590      8.379      1.164     0.3466      4.136    0.3468     4.138
593      8.379      1.164     0.3466      4.136    0.3468     4.138
594      8.379      1.164     0.3466      4.136    0.3468     4.138
599      8.379      1.164     0.3466      4.136    0.3468     4.138
601       8.38      1.164     0.3466      4.136    0.3468     4.138
602       8.38      1.164     0.3466      4.136    0.3468     4.138
605       8.38      1.164     0.3466      4.136    0.3468     4.138
608       8.38      1.164     0.3466      4.136    0.3468     4.138
609       8.38      1.164     0.3466      4.136    0.3468     4.138
610       8.38      1.164     0.3466      4.136    0.3468     4.138
611       8.38      1.164     0.3466      4.136    0.3468     4.138
612       8.38      1.164     0.3466      4.136    0.3468     4.138
615       8.38      1.164     0.3466      4.136    0.3468     4.138
617       8.38      1.164     0.3466      4.136    0.3468     4.138
619       8.38      1.164     0.3466      4.136    0.3468     4.138
622       8.38      1.164     0.3466      4.136    0.3468     4.138
626       8.38      1.164     0.3466      4.136    0.3468     4.138
627       8.38      1.164     0.3466      4.136    0.3468     4.138
628       8.38      1.164     0.3466      4.136    0.3468     4.138
631       8.38      1.164     0.3466      4.136    0.3468     4.138
632       8.38      1.164     0.3466      4.136    0.3468     4.138
635       8.38      1.164     0.3466      4.136    0.3468     4.138
636       8.38      1.164     0.3466      4.136    0.3468     4.138
637       8.38      1.164     0.3466      4.136    0.3468     4.138
400      8.379      1.164     0.3466      4.136    0.3468     4.138
401      8.379      1.164     0.3466      4.136    0.3468     4.138
408      8.379      1.164     0.3466      4.136    0.3468     4.138
413      8.379      1.164     0.3466      4.136    0.3468     4.138
415      8.379      1.164     0.3466      4.136    0.3468     4.138
417      8.379      1.164     0.3466      4.136    0.3468     4.138
427      8.379      1.164     0.3466      4.136    0.3468     4.138
429      8.379      1.164     0.3466      4.136    0.3468     4.138
430      8.379      1.164     0.3466      4.136    0.3468     4.138
436      8.379      1.164     0.3466      4.136    0.3468     4.138
440      8.379      1.164     0.3466      4.136    0.3468     4.138
446      8.379      1.164     0.3466      4.136    0.3468     4.138
447      8.379      1.164     0.3466      4.136    0.3468     4.138
450      8.379      1.164     0.3466      4.136    0.3468     4.138
456      8.379      1.164     0.3466      4.136    0.3468     4.138
457      8.379      1.164     0.3466      4.136    0.3468     4.138
461      8.379      1.164     0.3466      4.136    0.3468     4.138
462      8.379      1.164     0.3466      4.136    0.3468     4.138
468      8.379      1.164     0.3466      4.136    0.3468     4.138
472      8.379      1.164     0.3466      4.136    0.3468     4.138
473      8.379      1.164     0.3466      4.136    0.3468     4.138
480      8.379      1.164     0.3466      4.136    0.3468     4.138
481      8.379      1.164     0.3466      4.136    0.3468     4.138
482      8.379      1.164     0.3466      4.136    0.3468     4.138
487      8.379      1.164     0.3466      4.136    0.3468     4.138
490      8.379      1.164     0.3466      4.136    0.3468     4.138
491      8.379      1.164     0.3466      4.136    0.3468     4.138
497      8.379      1.164     0.3466      4.136    0.3468     4.138
498      8.379      1.164     0.3466      4.136    0.3468     4.138
500      8.379      1.164     0.3466      4.136    0.3468     4.138
503      8.379      1.164     0.3466      4.136    0.3468     4.138
511      8.379      1.164     0.3466      4.136    0.3468     4.138
512      8.379      1.164     0.3466      4.136    0.3468     4.138
517      8.379      1.164     0.3466      4.136    0.3468     4.138
518      8.379      1.164     0.3466      4.136    0.3468     4.138
525      8.379      1.164     0.3466      4.136    0.3468     4.138
527      8.379      1.164     0.3466      4.136    0.3468     4.138
533      8.379      1.164     0.3466      4.136    0.3468     4.138
535      8.379      1.164     0.3466      4.136    0.3468     4.138
536      8.379      1.164     0.3466      4.136    0.3468     4.138
540      8.379      1.164     0.3466      4.136    0.3468     4.138
542      8.379      1.164     0.3466      4.136    0.3468     4.138
545      8.379      1.164     0.3466      4.136    0.3468     4.138
544      8.379      1.164     0.3466      4.136    0.3468     4.138
546      8.379      1.164     0.3466      4.136    0.3468     4.138
547      8.379      1.164     0.3466      4.136    0.3468     4.138
549      8.379      1.164     0.3466      4.136    0.3468     4.138
552      8.379      1.164     0.3466      4.136    0.3468     4.138
554      8.379      1.164     0.3466      4.136    0.3468     4.138
559      8.379      1.164     0.3466      4.136    0.3468     4.138
565      8.379      1.164     0.3466      4.136    0.3468     4.138
571      8.379      1.164     0.3466      4.136    0.3468     4.138
575      8.379      1.164     0.3466      4.136    0.3468     4.138
576      8.379      1.164     0.3466      4.136    0.3468     4.138
579      8.379      1.164     0.3466      4.136    0.3468     4.138
580      8.379      1.164     0.3466      4.136    0.3468     4.138
581      8.379      1.164     0.3466      4.136    0.3468     4.138
583      8.379      1.164     0.3466      4.136    0.3468     4.138
587      8.379      1.164     0.3466      4.136    0.3468     4.138
589      8.379      1.164     0.3466      4.136    0.3468     4.138
592      8.379      1.164     0.3466      4.136    0.3468     4.138
595      8.379      1.164     0.3466      4.136    0.3468     4.138
596      8.379      1.164     0.3466      4.136    0.3468     4.138
606      8.379      1.164     0.3466      4.136    0.3468     4.138
529      8.379      1.164     0.3466      4.136    0.3468     4.138
534      8.379      1.164     0.3466      4.136    0.3468     4.138
537      8.379      1.164     0.3466      4.136    0.3468     4.138
538      8.379      1.164     0.3466      4.136    0.3468     4.138
507      8.379      1.164     0.3466      4.136    0.3468     4.138
374      8.379      1.164     0.3466      4.136    0.3468     4.138
375      8.379      1.164     0.3466      4.136    0.3468     4.138
377      8.379      1.164     0.3466      4.136    0.3468     4.138
378      8.379      1.164     0.3466      4.136    0.3468     4.138
382      8.379      1.164     0.3466      4.136    0.3468     4.138
385      8.379      1.164     0.3466      4.136    0.3468     4.138
387      8.379      1.164     0.3466      4.136    0.3468     4.138
389      8.379      1.164     0.3466      4.136    0.3468     4.138
390      8.379      1.164     0.3466      4.136    0.3468     4.138
398      8.379      1.164     0.3466      4.136    0.3468     4.138
402      8.379      1.164     0.3466      4.136    0.3468     4.138
403      8.379      1.164     0.3466      4.136    0.3468     4.138
405      8.379      1.164     0.3466      4.136    0.3468     4.138
409      8.379      1.164     0.3466      4.136    0.3468     4.138
421      8.379      1.164     0.3466      4.136    0.3468     4.138
422      8.379      1.164     0.3466      4.136    0.3468     4.138
431      8.379      1.164     0.3466      4.136    0.3468     4.138
433      8.379      1.164     0.3466      4.136    0.3468     4.138
437      8.379      1.164     0.3466      4.136    0.3468     4.138
438      8.379      1.164     0.3466      4.136    0.3468     4.138
442      8.379      1.164     0.3466      4.136    0.3468     4.138
444      8.379      1.164     0.3466      4.136    0.3468     4.138
448      8.379      1.164     0.3466      4.136    0.3468     4.138
453      8.379      1.164     0.3466      4.136    0.3468     4.138
458      8.379      1.164     0.3466      4.136    0.3468     4.138
464      8.379      1.164     0.3466      4.136    0.3468     4.138
466      8.379      1.164     0.3466      4.136    0.3468     4.138
470      8.379      1.164     0.3466      4.136    0.3468     4.138
471      8.379      1.164     0.3466      4.136    0.3468     4.138
475      8.379      1.164     0.3466      4.136    0.3468     4.138
476      8.379      1.164     0.3466      4.136    0.3468     4.138
479      8.379      1.164     0.3466      4.136    0.3468     4.138
485      8.379      1.164     0.3466      4.136    0.3468     4.138
488      8.379      1.164     0.3466      4.136    0.3468     4.138
492      8.379      1.164     0.3466      4.136    0.3468     4.138
495      8.379      1.164     0.3466      4.136    0.3468     4.138
506      8.379      1.164     0.3466      4.136    0.3468     4.138
510      8.379      1.164     0.3466      4.136    0.3468     4.138
516      8.379      1.164     0.3466      4.136    0.3468     4.138
519      8.379      1.164     0.3466      4.136    0.3468     4.138
520      8.379      1.164     0.3466      4.136    0.3468     4.138
524      8.379      1.164     0.3466      4.136    0.3468     4.138
528      8.379      1.164     0.3466      4.136    0.3468     4.138
391      8.379      1.164     0.3466      4.136    0.3468     4.138
394      8.379      1.164     0.3466      4.136    0.3468     4.138
396      8.379      1.164     0.3466      4.136    0.3468     4.138
411      8.379      1.164     0.3466      4.136    0.3468     4.138
418      8.379      1.164     0.3466      4.136    0.3468     4.138
423      8.379      1.164     0.3466      4.136    0.3468     4.138
424      8.379      1.164     0.3466      4.136    0.3468     4.138
425      8.379      1.164     0.3466      4.136    0.3468     4.138
426      8.379      1.164     0.3466      4.136    0.3468     4.138
432      8.379      1.164     0.3466      4.136    0.3468     4.138
441      8.379      1.164     0.3466      4.136    0.3468     4.138
449      8.379      1.164     0.3466      4.136    0.3468     4.138
455      8.379      1.164     0.3466      4.136    0.3468     4.138
465      8.379      1.164     0.3466      4.136    0.3468     4.138
467      8.379      1.164     0.3466      4.136    0.3468     4.138
474      8.379      1.164     0.3466      4.136    0.3468     4.138
477      8.379      1.164     0.3466      4.136    0.3468     4.138
484      8.379      1.164     0.3466      4.136    0.3468     4.138
493      8.379      1.164     0.3466      4.136    0.3468     4.138
496      8.379      1.164     0.3466      4.136    0.3468     4.138
499      8.379      1.164     0.3466      4.136    0.3468     4.138
505      8.379      1.164     0.3466      4.136    0.3468     4.138
509      8.379      1.164     0.3466      4.136    0.3468     4.138
513      8.379      1.164     0.3466      4.136    0.3468     4.138
514      8.379      1.164     0.3466      4.136    0.3468     4.138
521      8.379      1.164     0.3466      4.136    0.3468     4.138
522      8.379      1.164     0.3466      4.136    0.3468     4.138
530      8.379      1.164     0.3466      4.136    0.3468     4.138
532      8.379      1.164     0.3466      4.136    0.3468     4.138
541      8.379      1.164     0.3466      4.136    0.3468     4.138
548      8.379      1.164     0.3466      4.136    0.3468     4.138
553      8.379      1.164     0.3466      4.136    0.3468     4.138
557      8.379      1.164     0.3466      4.136    0.3468     4.138
562       8.38      1.164     0.3466      4.136    0.3468     4.138
570       8.38      1.164     0.3466      4.136    0.3468     4.138
573       8.38      1.164     0.3466      4.136    0.3468     4.138
574       8.38      1.164     0.3466      4.136    0.3468     4.138
582       8.38      1.164     0.3466      4.136    0.3468     4.138
585       8.38      1.164     0.3466      4.136    0.3468     4.138
586       8.38      1.164     0.3466      4.136    0.3468     4.138
588       8.38      1.164     0.3466      4.136    0.3468     4.138
591       8.38      1.164     0.3466      4.136    0.3468     4.138
597       8.38      1.164     0.3466      4.136    0.3468     4.138
604       8.38      1.164     0.3466      4.136    0.3468     4.138
607       8.38      1.164     0.3466      4.136    0.3468     4.138
618       8.38      1.164     0.3466      4.136    0.3468     4.138
621       8.38      1.164     0.3466      4.136    0.3468     4.138
625       8.38      1.164     0.3466      4.136    0.3468     4.138
630       8.38      1.164     0.3466      4.136    0.3468     4.138
634       8.38      1.164     0.3466      4.136    0.3468     4.138
558       8.38      1.164     0.3466      4.136    0.3468     4.138
561       8.38      1.164     0.3466      4.136    0.3468     4.138
567       8.38      1.164     0.3466      4.136    0.3468     4.138
568       8.38      1.164     0.3466      4.136    0.3468     4.138
569       8.38      1.164     0.3466      4.136    0.3468     4.138
577       8.38      1.164     0.3466      4.136    0.3468     4.138
598       8.38      1.164     0.3466      4.136    0.3468     4.138
600       8.38      1.164     0.3466      4.136    0.3468     4.138
603       8.38      1.164     0.3466      4.136    0.3468     4.138
613       8.38      1.164     0.3466      4.136    0.3468     4.138
614       8.38      1.164     0.3466      4.136    0.3468     4.138
616       8.38      1.164     0.3466      4.136    0.3468     4.138
620       8.38      1.164     0.3466      4.136    0.3468     4.138
623       8.38      1.164     0.3466      4.136    0.3468     4.138
624       8.38      1.164     0.3466      4.136    0.3468     4.138
629       8.38      1.164     0.3466      4.136    0.3468     4.138
633       8.38      1.164     0.3466      4.136    0.3468     4.138
638       8.38      1.164     0.3466      4.136    0.3468     4.138
639       8.38      1.164     0.3466      4.136    0.3468     4.138
640       8.38      1.164     0.3466      4.136    0.3468     4.138
641       8.38      1.164     0.3466      4.136    0.3468     4.138
642       8.38      1.164     0.3466      4.136    0.3468     4.138
643       8.38      1.164     0.3466      4.136    0.3468     4.138
644       8.38      1.164     0.3466      4.136    0.3468     4.138
645       8.38      1.164     0.3466      4.136    0.3468     4.138
646       8.38      1.164     0.3466      4.136    0.3468     4.138
647       8.38      1.164     0.3466      4.136    0.3468     4.138
648       8.38      1.164     0.3466      4.136    0.3468     4.138
649       8.38      1.164     0.3466      4.136    0.3468     4.138
304       8.07      1.121     0.2233      2.767    0.2234     2.769
306       8.07      1.121     0.2233      2.767    0.2234     2.769
308       8.07      1.121     0.2233      2.767    0.2234     2.769
286       8.07      1.121     0.2233      2.767    0.2234     2.768
290       8.07      1.121     0.2233      2.767    0.2234     2.768
291       8.07      1.121     0.2233      2.767    0.2234     2.768
297       8.07      1.121     0.2233      2.767    0.2234     2.768
298       8.07      1.121     0.2233      2.767    0.2234     2.768
309       8.07      1.121     0.2233      2.767    0.2234     2.768
310       8.07      1.121     0.2233      2.767    0.2234     2.768
319       8.07      1.121     0.2233      2.767    0.2234     2.768
325       8.07      1.121     0.2233      2.767    0.2234     2.768
326       8.07      1.121     0.2233      2.767    0.2234     2.768
332       8.07      1.121     0.2233      2.767    0.2234     2.768
334       8.07      1.121     0.2233      2.767    0.2234     2.768
336       8.07      1.121     0.2233      2.767    0.2234     2.768
338       8.07      1.121     0.2233      2.767    0.2234     2.768
341       8.07      1.121     0.2233      2.767    0.2234     2.768
145      7.639      1.061     0.0158     0.2068   0.01592    0.2084
146      7.639      1.061     0.0158     0.2068   0.01592    0.2084
155      7.639      1.061     0.0158     0.2068   0.01592    0.2084
158      7.639      1.061     0.0158     0.2068   0.01592    0.2084
160      7.639      1.061     0.0158     0.2068   0.01592    0.2084
162      7.639      1.061     0.0158     0.2068   0.01592    0.2084
167      7.639      1.061     0.0158     0.2068   0.01592    0.2084
171      7.639      1.061     0.0158     0.2068   0.01592    0.2084
176      7.639      1.061     0.0158     0.2068   0.01592    0.2084
182      7.639      1.061     0.0158     0.2068   0.01592    0.2084
191      7.639      1.061     0.0158     0.2068   0.01592    0.2084
192      7.639      1.061     0.0158     0.2068   0.01592    0.2084
193      7.639      1.061     0.0158     0.2068   0.01592    0.2084
194      7.639      1.061     0.0158     0.2068   0.01592    0.2084
195      7.639      1.061     0.0158     0.2068   0.01592    0.2084
196      7.639      1.061     0.0158     0.2068   0.01592    0.2084
197      7.639      1.061     0.0158     0.2068   0.01592    0.2084
201      7.639      1.061     0.0158     0.2068   0.01592    0.2084
202      7.639      1.061     0.0158     0.2068   0.01592    0.2084
206      7.639      1.061     0.0158     0.2068   0.01592    0.2084
207      7.639      1.061     0.0158     0.2068   0.01592    0.2084
208      7.639      1.061     0.0158     0.2068   0.01592    0.2084
209      7.639      1.061     0.0158     0.2068   0.01592    0.2084
211      7.639      1.061     0.0158     0.2068   0.01592    0.2084
212      7.639      1.061     0.0158     0.2068   0.01592    0.2084
214      7.639      1.061     0.0158     0.2068   0.01592    0.2084
177      7.639      1.061     0.0158     0.2068   0.01592    0.2084
180      7.639      1.061     0.0158     0.2068   0.01592    0.2084
181      7.639      1.061     0.0158     0.2068   0.01592    0.2084
147      7.639      1.061     0.0158     0.2068   0.01592    0.2084
30       7.639      1.061    0.01578     0.2066   0.01581     0.207
31       7.639      1.061    0.01578     0.2066   0.01581     0.207
32       7.639      1.061    0.01578     0.2066   0.01581     0.207
35       7.639      1.061    0.01578     0.2066   0.01581     0.207
37       7.639      1.061    0.01578     0.2066   0.01581     0.207
39       7.639      1.061    0.01578     0.2066   0.01581     0.207
44       7.639      1.061    0.01578     0.2066   0.01581     0.207
49       7.639      1.061    0.01578     0.2066   0.01581     0.207
55       7.639      1.061    0.01578     0.2066   0.01581     0.207
40       7.639      1.061    0.01578     0.2066   0.01581     0.207
43       7.639      1.061    0.01578     0.2066   0.01581     0.207
33       7.639      1.061    0.01578     0.2066   0.01581     0.207
36       7.639      1.061    0.01578     0.2066   0.01581     0.207
38       7.639      1.061    0.01578     0.2066   0.01581     0.207
42       7.639      1.061    0.01578     0.2066   0.01581     0.207
46       7.639      1.061    0.01578     0.2066   0.01581     0.207
47       7.639      1.061    0.01578     0.2066   0.01581     0.207
48       7.639      1.061    0.01578     0.2066   0.01581     0.207
50       7.639      1.061    0.01578     0.2066   0.01581     0.207
4        7.639      1.061    0.01577     0.2065   0.01577    0.2064
5        7.639      1.061    0.01577     0.2065   0.01577    0.2064
6        7.639      1.061    0.01577     0.2065   0.01577    0.2064
2        69.72       1.05  3.595E-005  5.156E-005 4.535E-009 6.505E-009
3         7.56       1.05  2.362E-005  0.0003125 1.974E-005 0.0002611
